Version 4
SHEET 1 1476 680
WIRE 176 -256 112 -256
WIRE 112 -208 112 -256
WIRE 768 -208 752 -208
WIRE 960 -208 768 -208
WIRE 960 -176 848 -176
WIRE 848 -160 848 -176
WIRE 1216 -128 1136 -128
WIRE 960 -80 848 -80
WIRE -64 -64 -96 -64
WIRE 768 -48 752 -48
WIRE 960 -48 768 -48
WIRE 112 -32 112 -128
WIRE 112 -32 80 -32
WIRE -96 0 -96 -64
WIRE -64 0 -96 0
WIRE -656 64 -656 48
WIRE -96 64 -96 0
WIRE 112 64 -96 64
WIRE 112 96 112 64
WIRE 112 240 112 176
WIRE -656 288 -656 272
WIRE 768 352 736 352
WIRE 112 384 112 320
WIRE 736 384 736 352
WIRE 112 496 112 464
WIRE 736 496 736 464
FLAG 112 496 0
FLAG 736 496 0
FLAG 176 -256 EMG+
IOPIN 176 -256 Out
FLAG 768 352 EMG-
IOPIN 768 352 Out
FLAG 752 -208 EMG+
IOPIN 752 -208 In
FLAG 752 -48 EMG-
IOPIN 752 -48 In
FLAG -656 144 0
FLAG -656 368 0
FLAG -656 48 VCC
FLAG -656 272 -VCC
FLAG 992 -32 -VCC
FLAG 992 -224 VCC
FLAG 1072 -64 0
FLAG 1216 -128 EMG_RAW
IOPIN 1216 -128 Out
FLAG 768 -128 0
FLAG 768 32 0
SYMBOL voltage 112 368 R0
WINDOW 123 0 0 Left 0
WINDOW 39 0 0 Left 0
SYMATTR InstName V1
SYMATTR Value PULSE(0 8m 0 .025 .025 0 .2)
SYMBOL SpecialFunctions\\modulate -64 -64 R0
WINDOW 3 0 0 Invisible 0
SYMATTR InstName A1
SYMATTR Value mark=50k space=0
SYMBOL voltage 112 224 R0
WINDOW 123 0 0 Left 0
WINDOW 39 0 0 Left 0
SYMATTR InstName V2
SYMATTR Value PULSE(0 4m .15 .03 .02 0 .22)
SYMBOL voltage 112 80 R0
WINDOW 123 0 0 Left 0
WINDOW 39 0 0 Left 0
SYMATTR InstName V3
SYMATTR Value PULSE(0 2m .05 .01 .005 0 .11)
SYMBOL voltage 112 -224 R0
WINDOW 123 0 0 Left 0
WINDOW 39 0 0 Left 0
SYMATTR InstName V4
SYMATTR Value SINE(0 20m 60 0 0 0)
SYMBOL OpAmps\\AD8421 992 -128 R0
SYMATTR InstName U1
SYMBOL voltage 736 368 R0
WINDOW 123 0 0 Left 0
WINDOW 39 0 0 Left 0
SYMATTR InstName V5
SYMATTR Value SINE(0 20m 60 0 0 0)
SYMBOL res 832 -176 R0
SYMATTR InstName R1
SYMATTR Value 100k
SYMBOL voltage -656 48 R0
WINDOW 123 0 0 Left 0
WINDOW 39 0 0 Left 0
SYMATTR InstName V6
SYMATTR Value 5
SYMBOL voltage -656 272 R0
WINDOW 123 0 0 Left 0
WINDOW 39 0 0 Left 0
SYMATTR InstName V7
SYMATTR Value -5
SYMBOL res 752 -224 R0
WINDOW 3 -85 56 Left 2
SYMATTR InstName R2
SYMATTR Value 10Meg
SYMBOL res 752 -64 R0
WINDOW 3 -80 57 Left 2
SYMATTR InstName R3
SYMATTR Value 10Meg
TEXT -676 500 Left 2 !.tran 1
TEXT -608 104 Left 2 ;Positive Supply Voltage
TEXT -608 328 Left 2 ;Negative Supply Voltage
TEXT 160 560 Left 2 ;EMG Signal Electrode Simulation
TEXT 680 560 Left 2 ;EMG Reference Electrode Simulation
TEXT 152 -168 Left 2 ;Electrical Noise
TEXT 776 424 Left 2 ;Electrical Noise
RECTANGLE Normal 528 576 -192 -336 2
RECTANGLE Normal 1088 576 640 304 2
